Version 4
SHEET 1 1668 680
WIRE -32 -16 -96 -16
WIRE 80 -16 -32 -16
WIRE 160 -16 80 -16
WIRE 352 -16 256 -16
WIRE 512 -16 352 -16
WIRE 736 -16 512 -16
WIRE 848 -16 736 -16
WIRE 1040 -16 944 -16
WIRE 1296 -16 1040 -16
WIRE 1344 -16 1296 -16
WIRE 864 80 864 32
WIRE -96 96 -96 -16
WIRE 80 96 80 -16
WIRE 240 96 240 32
WIRE 352 96 352 -16
WIRE 736 96 736 -16
WIRE 1040 96 1040 -16
WIRE 512 112 512 -16
WIRE 1344 112 1344 -16
WIRE 208 144 144 144
WIRE 288 144 208 144
WIRE 912 144 800 144
WIRE 976 144 912 144
WIRE 80 240 80 192
WIRE 208 240 208 144
WIRE 240 240 240 96
WIRE 352 240 352 192
WIRE 352 240 240 240
WIRE 736 240 736 192
WIRE 864 240 864 80
WIRE 864 240 736 240
WIRE 912 240 912 144
WIRE 1040 240 1040 192
WIRE -96 320 -96 176
WIRE 80 320 -96 320
WIRE 208 320 80 320
WIRE 352 320 208 320
WIRE 512 320 512 192
WIRE 512 320 352 320
WIRE 736 320 512 320
WIRE 912 320 736 320
WIRE 1040 320 912 320
WIRE 1344 320 1344 192
WIRE 1344 320 1040 320
FLAG -96 320 0
FLAG -32 -16 V1
FLAG 512 -16 LOAD
FLAG 240 96 GATEM1
FLAG 1296 -16 V2
FLAG 864 80 GATEM2
SYMBOL pnp 144 192 R180
SYMATTR InstName Q1
SYMATTR Value BC557B
SYMBOL pnp 288 192 M180
SYMATTR InstName Q2
SYMATTR Value BC557B
SYMBOL res 64 224 R0
SYMATTR InstName R1
SYMATTR Value 47k
SYMBOL res 192 224 R0
SYMATTR InstName R2
SYMATTR Value 470k
SYMBOL res 336 224 R0
SYMATTR InstName R3
SYMATTR Value 47k
SYMBOL pmos 160 32 R270
SYMATTR InstName M1
SYMATTR Value Si4542DY_P
SYMBOL voltage -96 80 R0
WINDOW 123 0 0 Left 2
WINDOW 39 0 0 Left 2
SYMATTR InstName V1
SYMATTR Value PULSE(0 3 1 0 0 2 3)
SYMBOL res 496 96 R0
SYMATTR InstName R4
SYMATTR Value 3
SYMBOL voltage 1344 96 R0
WINDOW 123 0 0 Left 2
WINDOW 39 0 0 Left 2
SYMATTR InstName V2
SYMATTR Value PULSE(0 3.08 2 0 0 2 3)
SYMBOL pmos 944 32 M270
SYMATTR InstName M2
SYMATTR Value Si4542DY_P
SYMBOL pnp 800 192 R180
SYMATTR InstName Q3
SYMATTR Value BC557B
SYMBOL pnp 976 192 M180
SYMATTR InstName Q4
SYMATTR Value BC557B
SYMBOL res 1024 224 R0
SYMATTR InstName R5
SYMATTR Value 47k
SYMBOL res 896 224 R0
SYMATTR InstName R6
SYMATTR Value 470k
SYMBOL res 720 224 R0
SYMATTR InstName R7
SYMATTR Value 47k
TEXT -130 344 Left 2 !.tran 10
